<?xml version="1.0" encoding="UTF-8"?>

<!-- generated on 2025-03-24 14:34:15 by Eclipse SUMO duarouter Version 1.11.0
<configuration xmlns:xsi="http://www.w3.org/2001/XMLSchema-instance" xsi:noNamespaceSchemaLocation="http://sumo.dlr.de/xsd/duarouterConfiguration.xsd">

    <input>
        <net-file value="pwt.net.xml"/>
        <route-files value="myflow.xml"/>
    </input>

    <output>
        <output-file value="pwt.rou.xml"/>
        <alternatives-output value="pwt.rou.alt.xml"/>
    </output>

    <processing>
        <randomize-flows value="true"/>
    </processing>

</configuration>
-->

<routes xmlns:xsi="http://www.w3.org/2001/XMLSchema-instance" xsi:noNamespaceSchemaLocation="http://sumo.dlr.de/xsd/routes_file.xsd">
    <vehicle id="flowl1.0" depart="7.58" departLane="random" color="red">
        <route edges="891797537#1 891797537#2 891797537#3 1093735059 561406371 561406369 438929822 189173770#0 189173770#1 189173770#2 189173770#3 189173770#4 189173770#5 1146029535#1 1146029535#2 1146029535#3 189173514#0 189173514#1 189173514#2 189173514#3 189173514#4 189173514#5 189173514#6 189173514#7 189173514#8 189173514#9"/>
    </vehicle>
    <vehicle id="flowl1.1" depart="9.51" departLane="random" color="red">
        <route edges="891797537#1 891797537#2 891797537#3 1093735059 561406371 561406369 438929822 189173770#0 189173770#1 189173770#2 189173770#3 189173770#4 189173770#5 1146029535#1 1146029535#2 1146029535#3 189173514#0 189173514#1 189173514#2 189173514#3 189173514#4 189173514#5 189173514#6 189173514#7 189173514#8 189173514#9"/>
    </vehicle>
    <vehicle id="flowl1.2" depart="9.74" departLane="random" color="red">
        <route edges="891797537#1 891797537#2 891797537#3 1093735059 561406371 561406369 438929822 189173770#0 189173770#1 189173770#2 189173770#3 189173770#4 189173770#5 1146029535#1 1146029535#2 1146029535#3 189173514#0 189173514#1 189173514#2 189173514#3 189173514#4 189173514#5 189173514#6 189173514#7 189173514#8 189173514#9"/>
    </vehicle>
    <vehicle id="flowl1.3" depart="12.69" departLane="random" color="red">
        <route edges="891797537#1 891797537#2 891797537#3 1093735059 561406371 561406369 438929822 189173770#0 189173770#1 189173770#2 189173770#3 189173770#4 189173770#5 1146029535#1 1146029535#2 1146029535#3 189173514#0 189173514#1 189173514#2 189173514#3 189173514#4 189173514#5 189173514#6 189173514#7 189173514#8 189173514#9"/>
    </vehicle>
    <vehicle id="flowl2.0" depart="15.39" departLane="random" color="green">
        <route edges="774902101#3 774902101#4 189170975#0 189170975#1 189170975#2 189170975#3 189170975#4 196047601#0 196047601#1 196047601#2 196047601#3 196047601#4 196047601#5 891797537#1 891797537#2 891797537#3 1093735059 561406371 561406369 438929822 189173770#0 189173770#1 189173770#2 189173770#3 189173770#4 189173770#5 1146029535#1 1146029535#2 1146029535#3 189173514#0 189173514#1 189173514#2 189173514#3 189173514#4 189173514#5 189173514#6 189173514#7 189173514#8 189173514#9 189186805#0 189186805#1 189184438#0 189184438#1 190403446#0 190403446#1 190403446#2 190403446#3 190403446#4 190403446#5 190403446#6 190403446#7 180244618#0 180244618#1 1146029534#13 961903477#0 961903477#1"/>
    </vehicle>
    <vehicle id="flowl2.1" depart="17.24" departLane="random" color="green">
        <route edges="774902101#3 774902101#4 189170975#0 189170975#1 189170975#2 189170975#3 189170975#4 196047601#0 196047601#1 196047601#2 196047601#3 196047601#4 196047601#5 891797537#1 891797537#2 891797537#3 1093735059 561406371 561406369 438929822 189173770#0 189173770#1 189173770#2 189173770#3 189173770#4 189173770#5 1146029535#1 1146029535#2 1146029535#3 189173514#0 189173514#1 189173514#2 189173514#3 189173514#4 189173514#5 189173514#6 189173514#7 189173514#8 189173514#9 189186805#0 189186805#1 189184438#0 189184438#1 190403446#0 190403446#1 190403446#2 190403446#3 190403446#4 190403446#5 190403446#6 190403446#7 180244618#0 180244618#1 1146029534#13 961903477#0 961903477#1"/>
    </vehicle>
    <vehicle id="flowl1.4" depart="35.35" departLane="random" color="red">
        <route edges="891797537#1 891797537#2 891797537#3 1093735059 561406371 561406369 438929822 189173770#0 189173770#1 189173770#2 189173770#3 189173770#4 189173770#5 1146029535#1 1146029535#2 1146029535#3 189173514#0 189173514#1 189173514#2 189173514#3 189173514#4 189173514#5 189173514#6 189173514#7 189173514#8 189173514#9"/>
    </vehicle>
    <vehicle id="flowl2.2" depart="38.16" departLane="random" color="green">
        <route edges="774902101#3 774902101#4 189170975#0 189170975#1 189170975#2 189170975#3 189170975#4 196047601#0 196047601#1 196047601#2 196047601#3 196047601#4 196047601#5 891797537#1 891797537#2 891797537#3 1093735059 561406371 561406369 438929822 189173770#0 189173770#1 189173770#2 189173770#3 189173770#4 189173770#5 1146029535#1 1146029535#2 1146029535#3 189173514#0 189173514#1 189173514#2 189173514#3 189173514#4 189173514#5 189173514#6 189173514#7 189173514#8 189173514#9 189186805#0 189186805#1 189184438#0 189184438#1 190403446#0 190403446#1 190403446#2 190403446#3 190403446#4 190403446#5 190403446#6 190403446#7 180244618#0 180244618#1 1146029534#13 961903477#0 961903477#1"/>
    </vehicle>
    <vehicle id="flowl2.3" depart="55.65" departLane="random" color="green">
        <route edges="774902101#3 774902101#4 189170975#0 189170975#1 189170975#2 189170975#3 189170975#4 196047601#0 196047601#1 196047601#2 196047601#3 196047601#4 196047601#5 891797537#1 891797537#2 891797537#3 1093735059 561406371 561406369 438929822 189173770#0 189173770#1 189173770#2 189173770#3 189173770#4 189173770#5 1146029535#1 1146029535#2 1146029535#3 189173514#0 189173514#1 189173514#2 189173514#3 189173514#4 189173514#5 189173514#6 189173514#7 189173514#8 189173514#9 189186805#0 189186805#1 189184438#0 189184438#1 190403446#0 190403446#1 190403446#2 190403446#3 190403446#4 190403446#5 190403446#6 190403446#7 180244618#0 180244618#1 1146029534#13 961903477#0 961903477#1"/>
    </vehicle>
    <vehicle id="flowl2.4" depart="56.85" departLane="random" color="green">
        <route edges="774902101#3 774902101#4 189170975#0 189170975#1 189170975#2 189170975#3 189170975#4 196047601#0 196047601#1 196047601#2 196047601#3 196047601#4 196047601#5 891797537#1 891797537#2 891797537#3 1093735059 561406371 561406369 438929822 189173770#0 189173770#1 189173770#2 189173770#3 189173770#4 189173770#5 1146029535#1 1146029535#2 1146029535#3 189173514#0 189173514#1 189173514#2 189173514#3 189173514#4 189173514#5 189173514#6 189173514#7 189173514#8 189173514#9 189186805#0 189186805#1 189184438#0 189184438#1 190403446#0 190403446#1 190403446#2 190403446#3 190403446#4 190403446#5 190403446#6 190403446#7 180244618#0 180244618#1 1146029534#13 961903477#0 961903477#1"/>
    </vehicle>
    <vehicle id="flowl2.5" depart="66.58" departLane="random" color="green">
        <route edges="774902101#3 774902101#4 189170975#0 189170975#1 189170975#2 189170975#3 189170975#4 196047601#0 196047601#1 196047601#2 196047601#3 196047601#4 196047601#5 891797537#1 891797537#2 891797537#3 1093735059 561406371 561406369 438929822 189173770#0 189173770#1 189173770#2 189173770#3 189173770#4 189173770#5 1146029535#1 1146029535#2 1146029535#3 189173514#0 189173514#1 189173514#2 189173514#3 189173514#4 189173514#5 189173514#6 189173514#7 189173514#8 189173514#9 189186805#0 189186805#1 189184438#0 189184438#1 190403446#0 190403446#1 190403446#2 190403446#3 190403446#4 190403446#5 190403446#6 190403446#7 180244618#0 180244618#1 1146029534#13 961903477#0 961903477#1"/>
    </vehicle>
    <vehicle id="flowl1.5" depart="75.18" departLane="random" color="red">
        <route edges="891797537#1 891797537#2 891797537#3 1093735059 561406371 561406369 438929822 189173770#0 189173770#1 189173770#2 189173770#3 189173770#4 189173770#5 1146029535#1 1146029535#2 1146029535#3 189173514#0 189173514#1 189173514#2 189173514#3 189173514#4 189173514#5 189173514#6 189173514#7 189173514#8 189173514#9"/>
    </vehicle>
    <vehicle id="flowl1.6" depart="75.85" departLane="random" color="red">
        <route edges="891797537#1 891797537#2 891797537#3 1093735059 561406371 561406369 438929822 189173770#0 189173770#1 189173770#2 189173770#3 189173770#4 189173770#5 1146029535#1 1146029535#2 1146029535#3 189173514#0 189173514#1 189173514#2 189173514#3 189173514#4 189173514#5 189173514#6 189173514#7 189173514#8 189173514#9"/>
    </vehicle>
    <vehicle id="flowl1.7" depart="83.72" departLane="random" color="red">
        <route edges="891797537#1 891797537#2 891797537#3 1093735059 561406371 561406369 438929822 189173770#0 189173770#1 189173770#2 189173770#3 189173770#4 189173770#5 1146029535#1 1146029535#2 1146029535#3 189173514#0 189173514#1 189173514#2 189173514#3 189173514#4 189173514#5 189173514#6 189173514#7 189173514#8 189173514#9"/>
    </vehicle>
    <vehicle id="flowl2.6" depart="84.41" departLane="random" color="green">
        <route edges="774902101#3 774902101#4 189170975#0 189170975#1 189170975#2 189170975#3 189170975#4 196047601#0 196047601#1 196047601#2 196047601#3 196047601#4 196047601#5 891797537#1 891797537#2 891797537#3 1093735059 561406371 561406369 438929822 189173770#0 189173770#1 189173770#2 189173770#3 189173770#4 189173770#5 1146029535#1 1146029535#2 1146029535#3 189173514#0 189173514#1 189173514#2 189173514#3 189173514#4 189173514#5 189173514#6 189173514#7 189173514#8 189173514#9 189186805#0 189186805#1 189184438#0 189184438#1 190403446#0 190403446#1 190403446#2 190403446#3 190403446#4 190403446#5 190403446#6 190403446#7 180244618#0 180244618#1 1146029534#13 961903477#0 961903477#1"/>
    </vehicle>
    <vehicle id="flowl1.8" depart="88.65" departLane="random" color="red">
        <route edges="891797537#1 891797537#2 891797537#3 1093735059 561406371 561406369 438929822 189173770#0 189173770#1 189173770#2 189173770#3 189173770#4 189173770#5 1146029535#1 1146029535#2 1146029535#3 189173514#0 189173514#1 189173514#2 189173514#3 189173514#4 189173514#5 189173514#6 189173514#7 189173514#8 189173514#9"/>
    </vehicle>
    <vehicle id="flowl2.7" depart="91.84" departLane="random" color="green">
        <route edges="774902101#3 774902101#4 189170975#0 189170975#1 189170975#2 189170975#3 189170975#4 196047601#0 196047601#1 196047601#2 196047601#3 196047601#4 196047601#5 891797537#1 891797537#2 891797537#3 1093735059 561406371 561406369 438929822 189173770#0 189173770#1 189173770#2 189173770#3 189173770#4 189173770#5 1146029535#1 1146029535#2 1146029535#3 189173514#0 189173514#1 189173514#2 189173514#3 189173514#4 189173514#5 189173514#6 189173514#7 189173514#8 189173514#9 189186805#0 189186805#1 189184438#0 189184438#1 190403446#0 190403446#1 190403446#2 190403446#3 190403446#4 190403446#5 190403446#6 190403446#7 180244618#0 180244618#1 1146029534#13 961903477#0 961903477#1"/>
    </vehicle>
    <vehicle id="flowl2.8" depart="94.34" departLane="random" color="green">
        <route edges="774902101#3 774902101#4 189170975#0 189170975#1 189170975#2 189170975#3 189170975#4 196047601#0 196047601#1 196047601#2 196047601#3 196047601#4 196047601#5 891797537#1 891797537#2 891797537#3 1093735059 561406371 561406369 438929822 189173770#0 189173770#1 189173770#2 189173770#3 189173770#4 189173770#5 1146029535#1 1146029535#2 1146029535#3 189173514#0 189173514#1 189173514#2 189173514#3 189173514#4 189173514#5 189173514#6 189173514#7 189173514#8 189173514#9 189186805#0 189186805#1 189184438#0 189184438#1 190403446#0 190403446#1 190403446#2 190403446#3 190403446#4 190403446#5 190403446#6 190403446#7 180244618#0 180244618#1 1146029534#13 961903477#0 961903477#1"/>
    </vehicle>
    <vehicle id="flowl1.9" depart="99.33" departLane="random" color="red">
        <route edges="891797537#1 891797537#2 891797537#3 1093735059 561406371 561406369 438929822 189173770#0 189173770#1 189173770#2 189173770#3 189173770#4 189173770#5 1146029535#1 1146029535#2 1146029535#3 189173514#0 189173514#1 189173514#2 189173514#3 189173514#4 189173514#5 189173514#6 189173514#7 189173514#8 189173514#9"/>
    </vehicle>
    <vehicle id="flowl2.9" depart="100.02" departLane="random" color="green">
        <route edges="774902101#3 774902101#4 189170975#0 189170975#1 189170975#2 189170975#3 189170975#4 196047601#0 196047601#1 196047601#2 196047601#3 196047601#4 196047601#5 891797537#1 891797537#2 891797537#3 1093735059 561406371 561406369 438929822 189173770#0 189173770#1 189173770#2 189173770#3 189173770#4 189173770#5 1146029535#1 1146029535#2 1146029535#3 189173514#0 189173514#1 189173514#2 189173514#3 189173514#4 189173514#5 189173514#6 189173514#7 189173514#8 189173514#9 189186805#0 189186805#1 189184438#0 189184438#1 190403446#0 190403446#1 190403446#2 190403446#3 190403446#4 190403446#5 190403446#6 190403446#7 180244618#0 180244618#1 1146029534#13 961903477#0 961903477#1"/>
    </vehicle>
    <vehicle id="flowl2.10" depart="103.99" departLane="random" color="green">
        <route edges="774902101#3 774902101#4 189170975#0 189170975#1 189170975#2 189170975#3 189170975#4 196047601#0 196047601#1 196047601#2 196047601#3 196047601#4 196047601#5 891797537#1 891797537#2 891797537#3 1093735059 561406371 561406369 438929822 189173770#0 189173770#1 189173770#2 189173770#3 189173770#4 189173770#5 1146029535#1 1146029535#2 1146029535#3 189173514#0 189173514#1 189173514#2 189173514#3 189173514#4 189173514#5 189173514#6 189173514#7 189173514#8 189173514#9 189186805#0 189186805#1 189184438#0 189184438#1 190403446#0 190403446#1 190403446#2 190403446#3 190403446#4 190403446#5 190403446#6 190403446#7 180244618#0 180244618#1 1146029534#13 961903477#0 961903477#1"/>
    </vehicle>
    <vehicle id="flowl2.11" depart="104.17" departLane="random" color="green">
        <route edges="774902101#3 774902101#4 189170975#0 189170975#1 189170975#2 189170975#3 189170975#4 196047601#0 196047601#1 196047601#2 196047601#3 196047601#4 196047601#5 891797537#1 891797537#2 891797537#3 1093735059 561406371 561406369 438929822 189173770#0 189173770#1 189173770#2 189173770#3 189173770#4 189173770#5 1146029535#1 1146029535#2 1146029535#3 189173514#0 189173514#1 189173514#2 189173514#3 189173514#4 189173514#5 189173514#6 189173514#7 189173514#8 189173514#9 189186805#0 189186805#1 189184438#0 189184438#1 190403446#0 190403446#1 190403446#2 190403446#3 190403446#4 190403446#5 190403446#6 190403446#7 180244618#0 180244618#1 1146029534#13 961903477#0 961903477#1"/>
    </vehicle>
    <vehicle id="flowl2.12" depart="113.40" departLane="random" color="green">
        <route edges="774902101#3 774902101#4 189170975#0 189170975#1 189170975#2 189170975#3 189170975#4 196047601#0 196047601#1 196047601#2 196047601#3 196047601#4 196047601#5 891797537#1 891797537#2 891797537#3 1093735059 561406371 561406369 438929822 189173770#0 189173770#1 189173770#2 189173770#3 189173770#4 189173770#5 1146029535#1 1146029535#2 1146029535#3 189173514#0 189173514#1 189173514#2 189173514#3 189173514#4 189173514#5 189173514#6 189173514#7 189173514#8 189173514#9 189186805#0 189186805#1 189184438#0 189184438#1 190403446#0 190403446#1 190403446#2 190403446#3 190403446#4 190403446#5 190403446#6 190403446#7 180244618#0 180244618#1 1146029534#13 961903477#0 961903477#1"/>
    </vehicle>
    <vehicle id="flowl2.13" depart="115.58" departLane="random" color="green">
        <route edges="774902101#3 774902101#4 189170975#0 189170975#1 189170975#2 189170975#3 189170975#4 196047601#0 196047601#1 196047601#2 196047601#3 196047601#4 196047601#5 891797537#1 891797537#2 891797537#3 1093735059 561406371 561406369 438929822 189173770#0 189173770#1 189173770#2 189173770#3 189173770#4 189173770#5 1146029535#1 1146029535#2 1146029535#3 189173514#0 189173514#1 189173514#2 189173514#3 189173514#4 189173514#5 189173514#6 189173514#7 189173514#8 189173514#9 189186805#0 189186805#1 189184438#0 189184438#1 190403446#0 190403446#1 190403446#2 190403446#3 190403446#4 190403446#5 190403446#6 190403446#7 180244618#0 180244618#1 1146029534#13 961903477#0 961903477#1"/>
    </vehicle>
    <vehicle id="flowl2.14" depart="119.78" departLane="random" color="green">
        <route edges="774902101#3 774902101#4 189170975#0 189170975#1 189170975#2 189170975#3 189170975#4 196047601#0 196047601#1 196047601#2 196047601#3 196047601#4 196047601#5 891797537#1 891797537#2 891797537#3 1093735059 561406371 561406369 438929822 189173770#0 189173770#1 189173770#2 189173770#3 189173770#4 189173770#5 1146029535#1 1146029535#2 1146029535#3 189173514#0 189173514#1 189173514#2 189173514#3 189173514#4 189173514#5 189173514#6 189173514#7 189173514#8 189173514#9 189186805#0 189186805#1 189184438#0 189184438#1 190403446#0 190403446#1 190403446#2 190403446#3 190403446#4 190403446#5 190403446#6 190403446#7 180244618#0 180244618#1 1146029534#13 961903477#0 961903477#1"/>
    </vehicle>
</routes>
