<?xml version="1.0" encoding="UTF-8"?>

<!-- generated on 2025-03-24 12:00:22 by Eclipse SUMO netconvert Version 1.11.0
<configuration xmlns:xsi="http://www.w3.org/2001/XMLSchema-instance" xsi:noNamespaceSchemaLocation="http://sumo.dlr.de/xsd/netconvertConfiguration.xsd">

    <input>
        <osm-files value="pwt.osm"/>
    </input>

    <output>
        <output-file value="pwt.net.xml"/>
    </output>

    <projection>
        <proj.utm value="true"/>
    </projection>

    <report>
        <aggregate-warnings value="5"/>
    </report>

</configuration>
-->

<net version="1.9" junctionCornerDetail="5" limitTurnSpeed="5.50" xmlns:xsi="http://www.w3.org/2001/XMLSchema-instance" xsi:noNamespaceSchemaLocation="http://sumo.dlr.de/xsd/net_file.xsd">

    <location netOffset="-304274.38,822475.37" convBoundary="0.00,0.00,2724.52,2356.70" origBoundary="109.222672,-7.437271,109.251250,-7.398675" projParameter="+proj=utm +zone=49 +ellps=WGS84 +datum=WGS84 +units=m +no_defs"/>

    <type id="highway.bridleway" priority="1" numLanes="1" speed="2.78" allow="pedestrian" oneway="1" width="2.00"/>
    <type id="highway.bus_guideway" priority="1" numLanes="1" speed="27.78" allow="bus" oneway="1"/>
    <type id="highway.cycleway" priority="1" numLanes="1" speed="8.33" allow="bicycle" oneway="0" width="1.00"/>
    <type id="highway.footway" priority="1" numLanes="1" speed="2.78" allow="pedestrian" oneway="1" width="2.00"/>
    <type id="highway.ford" priority="1" numLanes="1" speed="2.78" allow="army" oneway="0"/>
    <type id="highway.living_street" priority="2" numLanes="1" speed="2.78" disallow="tram rail_urban rail rail_electric rail_fast ship" oneway="0"/>
    <type id="highway.motorway" priority="14" numLanes="2" speed="39.44" allow="private emergency authority army vip passenger hov taxi bus coach delivery truck trailer motorcycle evehicle custom1 custom2" oneway="1"/>
    <type id="highway.motorway_link" priority="9" numLanes="1" speed="22.22" allow="private emergency authority army vip passenger hov taxi bus coach delivery truck trailer motorcycle evehicle custom1 custom2" oneway="1"/>
    <type id="highway.path" priority="1" numLanes="1" speed="2.78" allow="pedestrian bicycle" oneway="0" width="2.00"/>
    <type id="highway.pedestrian" priority="1" numLanes="1" speed="2.78" allow="pedestrian" oneway="1" width="2.00"/>
    <type id="highway.primary" priority="12" numLanes="2" speed="27.78" disallow="tram rail_urban rail rail_electric rail_fast ship" oneway="0"/>
    <type id="highway.primary_link" priority="7" numLanes="1" speed="22.22" disallow="tram rail_urban rail rail_electric rail_fast ship" oneway="0"/>
    <type id="highway.raceway" priority="15" numLanes="2" speed="83.33" allow="vip" oneway="0"/>
    <type id="highway.residential" priority="3" numLanes="1" speed="13.89" disallow="tram rail_urban rail rail_electric rail_fast ship" oneway="0"/>
    <type id="highway.secondary" priority="11" numLanes="1" speed="27.78" disallow="tram rail_urban rail rail_electric rail_fast ship" oneway="0"/>
    <type id="highway.secondary_link" priority="6" numLanes="1" speed="22.22" disallow="tram rail_urban rail rail_electric rail_fast ship" oneway="0"/>
    <type id="highway.service" priority="1" numLanes="1" speed="5.56" allow="pedestrian delivery bicycle" oneway="0"/>
    <type id="highway.stairs" priority="1" numLanes="1" speed="1.39" allow="pedestrian" oneway="1" width="2.00"/>
    <type id="highway.step" priority="1" numLanes="1" speed="1.39" allow="pedestrian" oneway="1" width="2.00"/>
    <type id="highway.steps" priority="1" numLanes="1" speed="1.39" allow="pedestrian" oneway="1" width="2.00"/>
    <type id="highway.tertiary" priority="10" numLanes="1" speed="22.22" disallow="tram rail_urban rail rail_electric rail_fast ship" oneway="0"/>
    <type id="highway.tertiary_link" priority="5" numLanes="1" speed="22.22" disallow="tram rail_urban rail rail_electric rail_fast ship" oneway="0"/>
    <type id="highway.track" priority="1" numLanes="1" speed="5.56" allow="pedestrian motorcycle moped bicycle" oneway="0"/>
    <type id="highway.trunk" priority="13" numLanes="2" speed="27.78" disallow="pedestrian bicycle tram rail_urban rail rail_electric rail_fast ship" oneway="0"/>
    <type id="highway.trunk_link" priority="8" numLanes="1" speed="22.22" disallow="pedestrian bicycle tram rail_urban rail rail_electric rail_fast ship" oneway="0"/>
    <type id="highway.unclassified" priority="4" numLanes="1" speed="13.89" disallow="tram rail_urban rail rail_electric rail_fast ship" oneway="0"/>
    <type id="highway.unsurfaced" priority="1" numLanes="1" speed="8.33" disallow="tram rail_urban rail rail_electric rail_fast ship" oneway="0"/>
    <type id="railway.highspeed" priority="21" numLanes="1" speed="69.44" allow="rail_fast" oneway="1"/>
    <type id="railway.light_rail" priority="19" numLanes="1" speed="27.78" allow="rail_urban" oneway="1"/>
    <type id="railway.preserved" priority="16" numLanes="1" speed="27.78" allow="rail" oneway="1"/>
    <type id="railway.rail" priority="20" numLanes="1" speed="44.44" allow="rail" oneway="1"/>
    <type id="railway.subway" priority="18" numLanes="1" speed="27.78" allow="rail_urban" oneway="1"/>
    <type id="railway.tram" priority="17" numLanes="1" speed="13.89" allow="tram" oneway="1"/>

    <edge id=":10017507403_0" function="internal">
        <lane id=":10017507403_0_0" index="0" disallow="tram rail_urban rail rail_electric rail_fast ship" speed="6.28" length="9.04" shape="546.44,1877.09 547.01,1879.54 548.24,1881.13 550.11,1881.86 552.62,1881.72"/>
        <lane id=":10017507403_0_1" index="1" disallow="tram rail_urban rail rail_electric rail_fast ship" speed="7.82" length="14.62" shape="543.25,1877.37 544.18,1881.33 546.16,1883.90 549.18,1885.08 553.24,1884.86"/>
        <lane id=":10017507403_0_2" index="2" disallow="tram rail_urban rail rail_electric rail_fast ship" speed="8.50" length="17.47" shape="543.25,1877.37 544.33,1882.73 546.46,1886.29 549.64,1888.04 553.87,1888.00"/>
    </edge>
    <edge id=":10017507403_3" function="internal">
        <lane id=":10017507403_3_0" index="0" disallow="tram rail_urban rail rail_electric rail_fast ship" speed="27.78" length="14.33" shape="538.50,1884.65 552.62,1881.72"/>
        <lane id=":10017507403_3_1" index="1" disallow="tram rail_urban rail rail_electric rail_fast ship" speed="27.78" length="14.33" shape="539.18,1887.77 553.24,1884.86"/>
        <lane id=":10017507403_3_2" index="2" disallow="tram rail_urban rail rail_electric rail_fast ship" speed="27.78" length="14.33" shape="539.86,1890.90 553.87,1888.00"/>
        <lane id=":10017507403_3_3" index="3" disallow="tram rail_urban rail rail_electric rail_fast ship" speed="27.78" length="14.33" shape="540.54,1894.03 554.49,1891.14"/>
    </edge>
    <edge id=":10538729603_0" function="internal">
        <lane id=":10538729603_0_0" index="0" disallow="tram rail_urban rail rail_electric rail_fast ship" speed="2.78" length="4.67" shape="601.61,915.65 600.76,914.48 600.67,913.60 601.32,912.99 602.72,912.65"/>
    </edge>
    <edge id=":10538734093_0" function="internal">
        <lane id=":10538734093_0_0" index="0" allow="pedestrian delivery bicycle" speed="5.56" length="0.79" shape="1243.05,1093.58 1242.91,1093.76 1242.83,1093.90 1242.78,1094.05 1242.73,1094.28"/>
    </edge>
    <edge id=":10538734093_1" function="internal">
        <lane id=":10538734093_1_0" index="0" allow="pedestrian delivery bicycle" speed="5.56" length="2.36" shape="1239.59,1093.68 1239.73,1093.00 1239.88,1092.54 1240.13,1092.13 1240.55,1091.58"/>
    </edge>
    <edge id=":10538734094_0" function="internal">
        <lane id=":10538734094_0_0" index="0" disallow="tram rail_urban rail rail_electric rail_fast ship" speed="2.78" length="3.55" shape="811.01,1114.50 814.45,1113.60"/>
    </edge>
    <edge id=":10538734094_1" function="internal">
        <lane id=":10538734094_1_0" index="0" disallow="tram rail_urban rail rail_electric rail_fast ship" speed="2.78" length="3.56" shape="813.65,1110.50 810.20,1111.41"/>
    </edge>
    <edge id=":10538734095_0" function="internal">
        <lane id=":10538734095_0_0" index="0" disallow="tram rail_urban rail rail_electric rail_fast ship" speed="2.78" length="4.19" shape="691.17,972.61 691.34,968.42"/>
    </edge>
    <edge id=":10538734095_1" function="internal">
        <lane id=":10538734095_1_0" index="0" disallow="tram rail_urban rail rail_electric rail_fast ship" speed="2.78" length="5.40" shape="688.33,967.34 687.97,972.72"/>
    </edge>
    <edge id=":10564870960_0" function="internal">
        <lane id=":10564870960_0_0" index="0" allow="pedestrian delivery bicycle" speed="5.56" length="1.08" shape="1337.47,1085.53 1337.75,1086.58"/>
    </edge>
    <edge id=":10564870960_1" function="internal">
        <lane id=":10564870960_1_0" index="0" allow="pedestrian delivery bicycle" speed="5.56" length="1.08" shape="1340.84,1085.77 1340.57,1084.73"/>
    </edge>
    <edge id=":10564870961_0" function="internal">
        <lane id=":10564870961_0_0" index="0" disallow="tram rail_urban rail rail_electric rail_fast ship" speed="27.78" length="0.30" shape="1377.14,1087.01 1376.85,1087.09"/>
        <lane id=":10564870961_0_1" index="1" disallow="tram rail_urban rail rail_electric rail_fast ship" speed="27.78" length="0.30" shape="1376.27,1083.93 1375.99,1084.01"/>
        <lane id=":10564870961_0_2" index="2" disallow="tram rail_urban rail rail_electric rail_fast ship" speed="27.78" length="0.30" shape="1375.41,1080.85 1375.12,1080.93"/>
        <lane id=":10564870961_0_3" index="3" disallow="tram rail_urban rail rail_electric rail_fast ship" speed="27.78" length="0.30" shape="1374.54,1077.77 1374.25,1077.85"/>
    </edge>
    <edge id=":10564870962_0" function="internal">
        <lane id=":10564870962_0_0" index="0" disallow="tram rail_urban rail rail_electric rail_fast ship" speed="22.22" length="3.03" shape="1532.87,1050.70 1530.62,1048.68"/>
        <lane id=":10564870962_0_1" index="1" disallow="tram rail_urban rail rail_electric rail_fast ship" speed="22.22" length="3.03" shape="1530.73,1053.08 1528.48,1051.06"/>
    </edge>
    <edge id=":10564870964_0" function="internal">
        <lane id=":10564870964_0_0" index="0" allow="pedestrian delivery bicycle" speed="5.56" length="0.18" shape="1705.47,1053.62 1705.46,1053.80"/>
    </edge>
    <edge id=":10564870965_0" function="internal">
        <lane id=":10564870965_0_0" index="0" allow="pedestrian delivery bicycle" speed="5.56" length="0.30" shape="1720.03,1054.02 1720.04,1054.32"/>
    </edge>
    <edge id=":10564870966_0" function="internal">
        <lane id=":10564870966_0_0" index="0" allow="pedestrian delivery bicycle" speed="5.56" length="0.30" shape="1749.44,1055.13 1749.40,1054.83"/>
    </edge>
    <edge id=":10564870967_0" function="internal">
        <lane id=":10564870967_0_0" index="0" allow="pedestrian delivery bicycle" speed="5.56" length="0.10" shape="1787.81,1056.04 1787.81,1056.04"/>
    </edge>
    <edge id=":10564870968_0" function="internal">
        <lane id=":10564870968_0_0" index="0" allow="pedestrian delivery bicycle" speed="5.56" length="0.10" shape="1809.58,1056.63 1809.58,1056.63"/>
    </edge>
    <edge id=":10564870969_0" function="internal">
        <lane id=":10564870969_0_0" index="0" disallow="tram rail_urban rail rail_electric rail_fast ship" speed="22.22" length="0.30" shape="1896.47,1058.66 1896.47,1058.96"/>
        <lane id=":10564870969_0_1" index="1" disallow="tram rail_urban rail rail_electric rail_fast ship" speed="22.22" length="0.30" shape="1893.27,1058.61 1893.27,1058.91"/>
    </edge>
    <edge id=":10628375582_0" function="internal">
        <lane id=":10628375582_0_0" index="0" disallow="tram rail_urban rail rail_electric rail_fast ship" speed="27.78" length="9.40" shape="489.96,1332.45 480.72,1334.13"/>
        <lane id=":10628375582_0_1" index="1" disallow="tram rail_urban rail rail_electric rail_fast ship" speed="27.78" length="9.40" shape="489.39,1329.30 480.14,1330.98"/>
        <lane id=":10628375582_0_2" index="2" disallow="tram rail_urban rail rail_electric rail_fast ship" speed="27.78" length="9.40" shape="488.82,1326.15 479.57,1327.83"/>
        <lane id=":10628375582_0_3" index="3" disallow="tram rail_urban rail rail_electric rail_fast ship" speed="27.78" length="9.40" shape="488.25,1323.00 479.00,1324.69"/>
    </edge>
    <edge id=":10628375582_4" function="internal">
        <lane id=":10628375582_4_0" index="0" allow="pedestrian delivery bicycle" speed="6.03" length="7.87" shape="488.25,1323.00 485.48,1323.30 483.43,1323.04 482.12,1322.23 481.54,1320.87"/>
    </edge>
    <edge id=":10628375582_5" function="internal">
        <lane id=":10628375582_5_0" index="0" allow="pedestrian delivery bicycle" speed="6.98" length="10.17" shape="484.71,1320.43 484.70,1323.26 483.84,1325.44 482.13,1326.96 479.57,1327.83"/>
        <lane id=":10628375582_5_1" index="1" allow="pedestrian delivery bicycle" speed="6.21" length="7.83" shape="484.71,1320.43 484.51,1321.87 483.49,1323.06 481.65,1324.00 479.00,1324.69"/>
    </edge>
    <edge id=":10628375582_7" function="internal">
        <lane id=":10628375582_7_0" index="0" allow="pedestrian delivery bicycle" speed="3.65" length="4.67" shape="484.71,1320.43 484.08,1321.73 483.34,1322.23 482.49,1321.95 481.54,1320.87"/>
    </edge>
    <edge id=":10628375584_0" function="internal">
        <lane id=":10628375584_0_0" index="0" disallow="tram rail_urban rail rail_electric rail_fast ship" speed="27.78" length="7.99" shape="439.64,1335.04 437.56,1335.64 436.59,1337.28 435.61,1339.10 433.56,1340.22"/>
        <lane id=":10628375584_0_1" index="1" disallow="tram rail_urban rail rail_electric rail_fast ship" speed="27.78" length="7.99" shape="439.64,1335.04 437.63,1335.17 436.32,1335.75 435.02,1336.48 433.04,1337.07"/>
        <lane id=":10628375584_0_2" index="2" disallow="tram rail_urban rail rail_electric rail_fast ship" speed="27.78" length="7.99" shape="439.64,1335.04 437.51,1334.67 436.06,1334.16 434.62,1333.80 432.51,1333.91"/>
        <lane id=":10628375584_0_3" index="3" disallow="tram rail_urban rail rail_electric rail_fast ship" speed="27.78" length="7.99" shape="439.64,1335.04 437.21,1334.14 435.79,1332.51 434.39,1331.08 431.98,1330.75"/>
    </edge>
    <edge id=":10628375585_0" function="internal">
        <lane id=":10628375585_0_0" index="0" disallow="tram rail_urban rail rail_electric rail_fast ship" speed="8.55" length="3.65" shape="442.38,1340.45 442.55,1336.80"/>
    </edge>
    <edge id=":10628375585_1" function="internal">
        <lane id=":10628375585_1_0" index="0" disallow="tram rail_urban rail rail_electric rail_fast ship" speed="27.78" length="3.09" shape="441.98,1337.28 439.84,1335.05"/>
    </edge>
    <edge id=":10628375586_0" function="internal">
        <lane id=":10628375586_0_0" index="0" disallow="tram rail_urban rail rail_electric rail_fast ship" speed="14.79" length="3.86" shape="442.39,1336.93 443.67,1344.48"/>
        <lane id=":10628375586_0_1" index="1" disallow="tram rail_urban rail rail_electric rail_fast ship" speed="11.37" length="3.86" shape="442.39,1336.93 442.97,1341.36"/>
        <lane id=":10628375586_0_2" index="2" disallow="tram rail_urban rail rail_electric rail_fast ship" speed="6.41" length="3.86" shape="442.39,1336.93 442.26,1338.23"/>
        <lane id=":10628375586_0_3" index="3" disallow="tram rail_urban rail rail_electric rail_fast ship" speed="7.77" length="3.86" shape="442.39,1336.93 441.56,1335.11"/>
    </edge>
    <edge id=":10657029619_0" function="internal">
        <lane id=":10657029619_0_0" index="0" disallow="tram rail_urban rail rail_electric rail_fast ship" speed="22.22" length="2.33" shape="1557.81,1048.45 1556.03,1049.96"/>
    </edge>
    <edge id=":10721161226_0" function="internal">
        <lane id=":10721161226_0_0" index="0" disallow="tram rail_urban rail rail_electric rail_fast ship" speed="22.22" length="14.40" shape="941.40,1445.46 941.52,1459.86"/>
    </edge>
    <edge id=":10721161226_1" function="internal">
        <lane id=":10721161226_1_0" index="0" disallow="tram rail_urban rail rail_electric rail_fast ship" speed="7.58" length="6.29" shape="941.40,1445.46 941.08,1449.35 939.83,1451.39"/>
    </edge>
    <edge id=":10721161226_2" function="internal">
        <lane id=":10721161226_2_0" index="0" disallow="tram rail_urban rail rail_electric rail_fast ship" speed="3.66" length="2.23" shape="941.40,1445.46 940.50,1446.61 939.79,1446.91"/>
    </edge>
    <edge id=":10721161226_9" function="internal">
        <lane id=":10721161226_9_0" index="0" disallow="tram rail_urban rail rail_electric rail_fast ship" speed="7.58" length="8.11" shape="939.83,1451.39 939.47,1451.97 936.56,1453.33 932.35,1453.43"/>
    </edge>
    <edge id=":10721161226_10" function="internal">
        <lane id=":10721161226_10_0" index="0" disallow="tram rail_urban rail rail_electric rail_fast ship" speed="3.66" length="2.49" shape="939.79,1446.91 939.67,1446.96 938.89,1446.50 938.17,1445.23"/>
    </edge>
    <edge id=":10721161226_3" function="internal">
        <lane id=":10721161226_3_0" index="0" disallow="tram rail_urban rail rail_electric rail_fast ship" speed="6.09" length="8.88" shape="932.70,1450.25 935.25,1450.18 937.01,1449.32 937.99,1447.67 938.17,1445.23"/>
    </edge>
    <edge id=":10721161226_4" function="internal">
        <lane id=":10721161226_4_0" index="0" disallow="tram rail_urban rail rail_electric rail_fast ship" speed="8.52" length="14.44" shape="932.70,1450.25 936.44,1451.20 939.16,1453.12 940.85,1456.01 941.52,1459.86"/>
    </edge>
    <edge id=":10721161226_5" function="internal">
        <lane id=":10721161226_5_0" index="0" disallow="tram rail_urban rail rail_electric rail_fast ship" speed="2.78" length="4.67" shape="932.70,1450.25 933.81,1451.18 934.12,1452.02 933.63,1452.77 932.35,1453.43"/>
    </edge>
    <edge id=":10721161226_6" function="internal">
        <lane id=":10721161226_6_0" index="0" disallow="tram rail_urban rail rail_electric rail_fast ship" speed="7.03" length="9.51" shape="938.31,1459.62 937.86,1457.15 936.72,1455.30 934.88,1454.06 932.35,1453.43"/>
    </edge>
    <edge id=":10721161226_7" function="internal">
        <lane id=":10721161226_7_0" index="0" disallow="tram rail_urban rail rail_electric rail_fast ship" speed="22.22" length="14.40" shape="938.31,1459.62 938.17,1445.23"/>
    </edge>
    <edge id=":10721161226_8" function="internal">
        <lane id=":10721161226_8_0" index="0" disallow="tram rail_urban rail rail_electric rail_fast ship" speed="3.66" length="2.21" shape="938.31,1459.62 939.20,1458.48 939.90,1458.19"/>
    </edge>
    <edge id=":10721161226_11" function="internal">
        <lane id=":10721161226_11_0" index="0" disallow="tram rail_urban rail rail_electric rail_fast ship" speed="3.66" length="2.49" shape="939.90,1458.19 940.03,1458.13 940.80,1458.60 941.52,1459.86"/>
    </edge>
    <edge id=":11050570645_0" function="internal">
        <lane id=":11050570645_0_0" index="0" disallow="tram rail_urban rail rail_electric rail_fast ship" speed="13.89" length="6.21" shape="1166.23,1344.28 1165.25,1338.15"/>
    </edge>
    <edge id=":11050570645_1" function="internal">
        <lane id=":11050570645_1_0" index="0" disallow="tram rail_urban rail rail_electric rail_fast ship" speed="13.89" length="6.22" shape="1168.41,1337.64 1169.39,1343.78"/>
    </edge>
    <edge id=":11050570645_2" function="internal">
        <lane id=":11050570645_2_0" index="0" allow="pedestrian delivery bicycle" speed="5.09" length="5.04" shape="1162.65,1341.75 1163.97,1341.31 1164.85,1340.56 1165.27,1339.51 1165.25,1338.15"/>
    </edge>
    <edge id=":11050570645_3" function="internal">
        <lane id=":11050570645_3_0" index="0" allow="pedestrian delivery bicycle" speed="6.05" length="7.83" shape="1162.65,1341.75 1165.41,1341.44 1167.46,1341.68 1168.78,1342.45 1169.39,1343.78"/>
    </edge>
    <edge id=":11050570658_0" function="internal">
        <lane id=":11050570658_0_0" index="0" allow="pedestrian delivery bicycle" speed="4.99" length="5.06" shape="1158.23,1294.69 1157.81,1293.36 1157.07,1292.50 1156.00,1292.12 1154.61,1292.21"/>
    </edge>
    <edge id=":11050570658_1" function="internal">
        <lane id=":11050570658_1_0" index="0" disallow="tram rail_urban rail rail_electric rail_fast ship" speed="13.89" length="6.19" shape="1158.23,1294.69 1157.27,1288.58"/>
    </edge>
    <edge id=":11050570658_2" function="internal">
        <lane id=":11050570658_2_0" index="0" disallow="tram rail_urban rail rail_electric rail_fast ship" speed="13.89" length="6.16" shape="1160.43,1288.10 1161.39,1294.18"/>
    </edge>
    <edge id=":11050570658_3" function="internal">
        <lane id=":11050570658_3_0" index="0" allow="pedestrian delivery bicycle" speed="6.20" length="2.85" shape="1160.43,1288.10 1160.23,1289.40 1159.19,1290.52"/>
    </edge>
    <edge id=":11050570658_4" function="internal">
        <lane id=":11050570658_4_0" index="0" allow="pedestrian delivery bicycle" speed="6.20" length="4.90" shape="1159.19,1290.52 1157.32,1291.46 1154.61,1292.21"/>
    </edge>
    <edge id=":11138823985_0" function="internal">
        <lane id=":11138823985_0_0" index="0" disallow="tram rail_urban rail rail_electric rail_fast ship" speed="3.65" length="4.67" shape="1565.23,869.51 1566.10,868.36 1566.92,868.01 1567.70,868.46 1568.42,869.70"/>
    </edge>
    <edge id=":11138823998_0" function="internal">
        <lane id=":11138823998_0_0" index="0" disallow="tram rail_urban rail rail_electric rail_fast ship" speed="3.65" length="4.67" shape="1527.49,871.23 1528.88,871.62 1529.51,872.26 1529.38,873.14 1528.48,874.27"/>
    </edge>
    <edge id=":11303837774_0" function="internal">
        <lane id=":11303837774_0_0" index="0" disallow="tram rail_urban rail rail_electric rail_fast ship" speed="2.78" length="0.30" shape="640.64,933.60 640.38,933.45"/>
    </edge>
    <edge id=":11303837774_1" function="internal">
        <lane id=":11303837774_1_0" index="0" disallow="tram rail_urban rail rail_electric rail_fast ship" speed="2.78" length="0.30" shape="641.98,930.68 642.24,930.83"/>
    </edge>
    <edge id=":11596903087_0" function="internal">
        <lane id=":11596903087_0_0" index="0" disallow="tram rail_urban rail rail_electric rail_fast ship" speed="27.78" length="9.35" shape="846.34,1240.78 837.49,1243.56"/>
        <lane id=":11596903087_0_1" index="1" disallow="tram rail_urban rail rail_electric rail_fast ship" speed="27.78" length="9.35" shape="845.41,1237.72 836.51,1240.51"/>
        <lane id=":11596903087_0_2" index="2" disallow="tram rail_urban rail rail_electric rail_fast ship" speed="27.78" length="9.35" shape="844.47,1234.66 835.53,1237.47"/>
        <lane id=":11596903087_0_3" index="3" disallow="tram rail_urban rail rail_electric rail_fast ship" speed="27.78" length="9.35" shape="843.54,1231.60 834.56,1234.42"/>
    </edge>
    <edge id=":11596903087_4" function="internal">
        <lane id=":11596903087_4_0" index="0" allow="pedestrian delivery bicycle" speed="6.41" length="7.94" shape="843.54,1231.60 840.89,1232.20 838.80,1232.20 837.29,1231.61 836.35,1230.42"/>
    </edge>
    <edge id=":11596903087_5" function="internal">
        <lane id=":11596903087_5_0" index="0" allow="pedestrian delivery bicycle" speed="6.78" length="10.69" shape="839.28,1229.13 840.08,1232.00 839.72,1234.34 838.21,1236.16 835.53,1237.47"/>
        <lane id=":11596903087_5_1" index="1" allow="pedestrian delivery bicycle" speed="5.98" length="8.06" shape="839.28,1229.13 839.53,1230.70 838.83,1232.11 837.17,1233.35 834.56,1234.42"/>
    </edge>
    <edge id=":11596903087_7" function="internal">
        <lane id=":11596903087_7_0" index="0" allow="pedestrian delivery bicycle" speed="3.65" length="4.67" shape="839.28,1229.13 839.03,1230.55 838.46,1231.24 837.57,1231.20 836.35,1230.42"/>
    </edge>
    <edge id=":11596903094_0" function="internal">
        <lane id=":11596903094_0_0" index="0" disallow="tram rail_urban rail rail_electric rail_fast ship" speed="27.78" length="9.50" shape="822.69,1248.32 813.62,1251.21"/>
        <lane id=":11596903094_0_1" index="1" disallow="tram rail_urban rail rail_electric rail_fast ship" speed="27.78" length="9.50" shape="821.71,1245.27 812.66,1248.16"/>
        <lane id=":11596903094_0_2" index="2" disallow="tram rail_urban rail rail_electric rail_fast ship" speed="27.78" length="9.50" shape="820.74,1242.22 811.69,1245.10"/>
        <lane id=":11596903094_0_3" index="3" disallow="tram rail_urban rail rail_electric rail_fast ship" speed="27.78" length="9.50" shape="819.76,1239.18 810.73,1242.05"/>
    </edge>
    <edge id=":11596903094_4" function="internal">
        <lane id=":11596903094_4_0" index="0" allow="pedestrian delivery bicycle" speed="5.95" length="8.17" shape="819.76,1239.18 816.98,1239.82 814.90,1239.75 813.53,1238.95 812.86,1237.44"/>
    </edge>
    <edge id=":11596903094_5" function="internal">
        <lane id=":11596903094_5_0" index="0" allow="pedestrian delivery bicycle" speed="7.25" length="10.27" shape="816.01,1236.90 816.16,1239.85 815.48,1242.20 814.00,1243.95 811.69,1245.10"/>
        <lane id=":11596903094_5_1" index="1" allow="pedestrian delivery bicycle" speed="6.49" length="8.04" shape="816.01,1236.90 815.89,1238.46 814.97,1239.84 813.25,1241.04 810.73,1242.05"/>
    </edge>
    <edge id=":11596903094_7" function="internal">
        <lane id=":11596903094_7_0" index="0" allow="pedestrian delivery bicycle" speed="3.65" length="4.67" shape="816.01,1236.90 815.42,1238.22 814.70,1238.75 813.85,1238.49 812.86,1237.44"/>
    </edge>
    <edge id=":11596903096_0" function="internal">
        <lane id=":11596903096_0_0" index="0" allow="pedestrian delivery bicycle" speed="3.65" length="4.67" shape="870.84,1210.19 872.25,1210.48 872.92,1211.08 872.85,1211.97 872.03,1213.16"/>
    </edge>
    <edge id=":11596903097_0" function="internal">
        <lane id=":11596903097_0_0" index="0" allow="pedestrian delivery bicycle" speed="5.45" length="5.35" shape="883.43,1232.65 882.61,1231.41 881.60,1230.65 880.42,1230.39 879.04,1230.62"/>
        <lane id=":11596903097_0_1" index="1" allow="pedestrian delivery bicycle" speed="6.56" length="8.17" shape="883.43,1232.65 881.99,1230.13 880.56,1228.47 879.12,1227.65 877.69,1227.69"/>
    </edge>
    <edge id=":11596903097_2" function="internal">
        <lane id=":11596903097_2_0" index="0" disallow="tram rail_urban rail rail_electric rail_fast ship" speed="27.78" length="7.25" shape="885.22,1228.65 879.04,1230.62"/>
        <lane id=":11596903097_2_1" index="1" disallow="tram rail_urban rail rail_electric rail_fast ship" speed="27.78" length="7.25" shape="884.36,1225.57 877.69,1227.69"/>
        <lane id=":11596903097_2_2" index="2" disallow="tram rail_urban rail rail_electric rail_fast ship" speed="27.78" length="7.25" shape="883.49,1222.49 876.35,1224.76"/>
        <lane id=":11596903097_2_3" index="3" disallow="tram rail_urban rail rail_electric rail_fast ship" speed="27.78" length="7.25" shape="882.63,1219.40 875.00,1221.83"/>
    </edge>
    <edge id=":11596903099_0" function="internal">
        <lane id=":11596903099_0_0" index="0" allow="pedestrian delivery bicycle" speed="5.56" length="9.59" shape="860.46,1221.33 856.72,1212.49"/>
    </edge>
    <edge id=":11596903099_1" function="internal">
        <lane id=":11596903099_1_0" index="0" allow="pedestrian delivery bicycle" speed="5.56" length="10.36" shape="860.46,1221.33 859.68,1218.58 859.98,1216.27 861.37,1214.41 863.84,1212.98"/>
    </edge>
    <edge id=":11596903099_2" function="internal">
        <lane id=":11596903099_2_0" index="0" allow="pedestrian delivery bicycle" speed="3.65" length="4.67" shape="860.46,1221.33 860.70,1219.90 861.27,1219.21 862.16,1219.25 863.38,1220.02"/>
    </edge>
    <edge id=":11596903099_3" function="internal">
        <lane id=":11596903099_3_0" index="0" allow="pedestrian delivery bicycle" speed="5.00" length="5.05" shape="865.03,1215.95 863.82,1216.65 863.15,1217.56 863.00,1218.68 863.38,1220.02"/>
    </edge>
    <edge id=":11596903099_4" function="internal">
        <lane id=":11596903099_4_0" index="0" allow="pedestrian delivery bicycle" speed="5.56" length="10.27" shape="865.03,1215.95 862.27,1216.63 859.97,1216.28 858.11,1214.90 856.72,1212.49"/>
    </edge>
    <edge id=":11596903099_5" function="internal">
        <lane id=":11596903099_5_0" index="0" allow="pedestrian delivery bicycle" speed="3.65" length="4.67" shape="865.03,1215.95 863.62,1215.66 862.95,1215.06 863.03,1214.17 863.84,1212.98"/>
    </edge>
    <edge id=":11596903099_6" function="internal">
        <lane id=":11596903099_6_0" index="0" allow="pedestrian delivery bicycle" speed="5.09" length="5.11" shape="859.69,1211.31 860.38,1212.49 861.30,1213.16 862.46,1213.33 863.84,1212.98"/>
    </edge>
    <edge id=":11596903099_7" function="internal">
        <lane id=":11596903099_7_0" index="0" allow="pedestrian delivery bicycle" speed="5.56" length="9.47" shape="859.69,1211.31 863.38,1220.02"/>
    </edge>
    <edge id=":11596903099_8" function="internal">
        <lane id=":11596903099_8_0" index="0" allow="pedestrian delivery bicycle" speed="3.65" length="4.67" shape="859.69,1211.31 859.39,1212.72 858.80,1213.38 857.91,1213.31 856.72,1212.49"/>
    </edge>
    <edge id=":11596903100_0" function="internal">
        <lane id=":11596903100_0_0" index="0" allow="pedestrian delivery bicycle" speed="5.05" length="5.37" shape="871.27,1233.11 869.86,1233.77 869.03,1234.67 868.79,1235.81 869.13,1237.19"/>
    </edge>
    <edge id=":11596903100_1" function="internal">
        <lane id=":11596903100_1_0" index="0" disallow="tram rail_urban rail rail_electric rail_fast ship" speed="27.78" length="9.53" shape="871.27,1233.11 862.11,1235.96"/>