<?xml version="1.0" encoding="UTF-8"?>

<!-- generated on 2025-03-24 12:03:46 by Eclipse SUMO polyconvert Version 1.11.0
<configuration xmlns:xsi="http://www.w3.org/2001/XMLSchema-instance" xsi:noNamespaceSchemaLocation="http://sumo.dlr.de/xsd/polyconvertConfiguration.xsd">

    <input>
        <net-file value="pwt.net.xml"/>
        <osm-files value="pwt.osm"/>
        <type-file value="osmPolyconvert.typ.xml"/>
    </input>

    <output>
        <output-file value="pwt.poly.xml"/>
    </output>

    <processing>
        <poi-layer-offset value="5"/>
    </processing>

</configuration>
-->

<additional xmlns:xsi="http://www.w3.org/2001/XMLSchema-instance" xsi:noNamespaceSchemaLocation="http://sumo.dlr.de/xsd/additional_file.xsd">
    <location netOffset="-304274.38,822475.37" convBoundary="-429.34,-471.75,3128.02,4269.07" origBoundary="109.222672,-7.441507,109.254906,-7.398675" projParameter="+proj=utm +zone=49 +ellps=WGS84 +datum=WGS84 +units=m +no_defs"/>

    <poly id="1005065136" type="building" color="255,230,230" fill="1" layer="-1.00" shape="1561.965524,1262.161812 1559.832385,1251.646243 1580.769841,1247.460156 1582.902984,1257.975723 1561.965524,1262.161812"/>
    <poly id="1005110664" type="building" color="255,230,230" fill="1" layer="-1.00" shape="1156.976754,2010.860348 1155.573468,2005.601212 1158.656892,2004.795017 1159.091988,2006.433645 1166.784031,2004.407032 1167.752265,2008.016480 1156.976754,2010.860348"/>
    <poly id="1005110665" type="building" color="255,230,230" fill="1" layer="-1.00" shape="1169.049876,2003.752429 1170.034505,2003.236517 1169.125119,1998.709312 1173.157941,1997.917950 1171.880710,1991.498002 1166.809290,1992.495379 1169.049876,2003.752429"/>
    <poly id="1005110666" type="building" color="255,230,230" fill="1" layer="-1.00" shape="1176.682594,2005.541322 1176.168758,2001.491275 1180.830027,2000.912552 1181.343907,2004.951539 1176.682594,2005.541322"/>
    <poly id="1005110667" type="building" color="255,230,230" fill="1" layer="-1.00" shape="1185.940853,1998.333732 1185.127741,1991.805029 1182.872972,1989.672525 1182.433289,1983.631950 1188.418744,1983.213331 1187.948445,1976.542208 1193.525331,1976.144085 1194.340966,1987.594553 1192.177348,1990.306745 1193.745534,1995.743497 1190.690441,1997.755360 1185.940853,1998.333732"/>
    <poly id="1005110668" type="building" color="255,230,230" fill="1" layer="-1.00" shape="1213.408748,1992.813275 1211.429906,1982.364658 1209.791401,1980.732309 1203.714770,1981.869477 1206.061544,1994.188718 1213.408748,1992.813275"/>
    <poly id="1005110669" type="building" color="255,230,230" fill="1" layer="-1.00" shape="1193.745534,1995.743497 1193.301893,1990.698318 1195.497532,1988.262756 1196.142100,1995.531818 1193.745534,1995.743497"/>
    <poly id="1005110672" type="building" color="255,230,230" fill="1" layer="-1.00" shape="1185.232929,1954.223148 1188.889683,1953.607253 1188.274818,1949.977089 1186.385699,1950.290325 1185.867865,1947.246733 1184.100274,1947.538332 1185.232929,1954.223148"/>
    <poly id="1005110673" type="building" color="255,230,230" fill="1" layer="-1.00" shape="1158.546386,1979.820817 1157.290848,1976.276587 1159.899945,1975.368966 1161.155526,1978.902136 1158.546386,1979.820817"/>
    <poly id="1005110674" type="building" color="255,230,230" fill="1" layer="-1.00" shape="1136.037142,1990.492852 1137.651526,1984.305598 1152.210160,1982.383702 1151.674160,1978.355686 1152.878183,1978.194570 1153.339365,1981.602922 1158.033929,1980.980093 1158.451962,1984.133890 1156.312752,1986.259992 1136.037142,1990.492852"/>
    <poly id="1005110675" type="building" color="255,230,230" fill="1" layer="-1.00" shape="1158.858707,1956.794878 1157.009496,1944.289587 1161.505468,1943.632789 1163.354680,1956.138080 1158.858707,1956.794878"/>
    <poly id="1005110676" type="building" color="255,230,230" fill="1" layer="-1.00" shape="1153.258485,1924.178431 1155.242875,1924.894166 1159.343954,1923.594312 1158.547880,1921.113680 1160.061192,1918.133461 1156.969541,1915.455683 1152.339108,1913.833559 1150.619772,1915.872848 1153.258485,1924.178431"/>
    <poly id="1005110677" type="building" color="255,230,230" fill="1" layer="-1.00" shape="1171.968550,1924.949585 1170.946218,1921.063418 1168.548028,1921.684313 1165.832447,1921.607159 1162.522249,1923.916628 1156.598556,1925.463621 1157.457749,1928.729773 1171.968550,1924.949585"/>
    <poly id="1005110678" type="building" color="255,230,230" fill="1" layer="-1.00" shape="1152.345769,1901.048081 1150.756875,1895.268379 1152.923092,1894.679743 1154.000535,1898.588250 1162.201238,1896.353521 1162.712645,1898.235775 1152.345769,1901.048081"/>
    <poly id="1005110679" type="building" color="255,230,230" fill="1" layer="-1.00" shape="1154.371186,1896.997065 1153.427323,1892.812586 1156.079344,1892.214821 1160.822241,1893.317566 1161.310557,1895.454111 1154.371186,1896.997065"/>
    <poly id="1005110680" type="building" color="255,230,230" fill="1" layer="-1.00" shape="1137.504883,1912.878722 1137.575383,1909.030078 1142.029303,1907.842229 1143.686058,1910.436885 1142.125459,1911.426093 1141.088537,1913.987920 1139.154467,1914.500057 1137.504883,1912.878722"/>
    <poly id="1005110681" type="building" color="255,230,230" fill="1" layer="-1.00" shape="1148.273971,1894.982006 1150.131189,1888.806779 1115.495681,1894.973360 1117.105379,1903.849982 1130.738654,1901.415653 1130.155288,1898.194837 1148.273971,1894.982006"/>
    <poly id="1005110682" type="building" color="255,230,230" fill="1" layer="-1.00" shape="1162.990694,1867.168990 1160.477738,1860.556106 1156.751628,1861.956991 1159.275624,1868.569918 1162.990694,1867.168990"/>
    <poly id="1005110683" type="building" color="255,230,230" fill="1" layer="-1.00" shape="1173.318113,1718.749985 1175.777865,1713.749526 1176.765698,1712.426238 1179.973178,1708.180841 1180.835522,1705.098495 1184.347028,1707.689463 1182.296416,1712.525646 1183.213486,1715.117361 1179.863327,1721.928140 1173.318113,1718.749985"/>
    <poly id="1005110684" type="building" color="255,230,230" fill="1" layer="-1.00" shape="1156.783104,1687.417271 1156.115687,1683.123289 1181.921096,1679.188938 1182.373211,1682.099548 1180.500686,1683.795363 1156.783104,1687.417271"/>
    <poly id="1006832224" type="building" color="255,230,230" fill="1" layer="-1.00" shape="1587.637099,1216.773503 1604.251284,1236.504314 1612.839556,1233.939276 1610.254149,1226.109522 1608.134303,1217.806030 1603.168989,1208.783398 1587.637099,1216.773503"/>
    <poly id="1006832352" type="building" color="255,230,230" fill="1" layer="-1.00" shape="1544.324333,1256.406883 1541.349297,1243.830789 1548.672447,1242.919754 1549.335503,1256.659040 1544.324333,1256.406883"/>
    <poly id="1062097286" type="natural" color="140,196,107" fill="1" layer="-4.00" shape="1691.755338,1008.117614 1692.133939,960.007679 1693.423814,957.679117 1708.348886,957.915307 1715.149210,957.986532 1747.743233,962.517777 1753.673364,959.311755 1755.910189,952.043085 1764.490969,954.134305 1767.049701,946.424508 1774.750808,947.627429 1831.313364,946.380783 1831.770136,978.744427 1831.788400,979.706728 1831.286396,989.371258 1830.437023,991.978072 1820.370897,991.396208 1819.324803,1007.418135 1816.112929,1007.228436 1813.277987,1006.642069 1813.489467,1003.424420 1814.153204,978.033077 1814.502351,970.723739 1765.674712,970.209321 1763.176273,1012.813962 1693.833123,1010.326819 1691.755338,1008.117614"/>
    <poly id="1081101345" type="building" color="255,230,230" fill="1" layer="-1.00" shape="217.963541,1921.546791 231.636624,1920.229937 230.501760,1908.601160 216.828635,1909.929073 217.963541,1921.546791"/>
    <poly id="1081101346" type="building" color="255,230,230" fill="1" layer="-1.00" shape="263.422283,1864.735255 263.506183,1874.136738 274.546814,1874.037043 274.451872,1864.635516 263.422283,1864.735255"/>
    <poly id="1081101361" type="building" color="255,230,230" fill="1" layer="-1.00" shape="273.438783,1913.749700 279.865646,1913.388255 279.391541,1904.936390 272.953639,1905.297791 273.438783,1913.749700"/>
    <poly id="1081101362" type="building" color="255,230,230" fill="1" layer="-1.00" shape="246.366349,1889.309212 245.590415,1881.796255 239.372211,1882.435032 240.159184,1889.948033 246.366349,1889.309212"/>
    <poly id="1081101363" type="building" color="255,230,230" fill="1" layer="-1.00" shape="213.147975,1902.703137 213.875773,1908.446276 226.401658,1906.881518 225.673859,1901.138381 213.147975,1902.703137"/>
    <poly id="1081101364" type="building" color="255,230,230" fill="1" layer="-1.00" shape="252.169439,1901.387976 253.131247,1906.590099 262.246058,1904.934290 261.284249,1899.732168 252.169439,1901.387976"/>
    <poly id="1081101365" type="building" color="255,230,230" fill="1" layer="-1.00" shape="194.355688,1864.459402 195.738723,1874.761952 206.773751,1873.301848 207.256417,1876.843032 216.722873,1875.597864 214.868252,1861.743115 194.355688,1864.459402"/>
    <poly id="1081101367" type="building" color="255,230,230" fill="1" layer="-1.00" shape="205.583686,1925.246745 206.249477,1935.457947 218.032460,1934.697616 217.355627,1924.486370 205.583686,1925.246745"/>
    <poly id="1081101368" type="building" color="255,230,230" fill="1" layer="-1.00" shape="238.861397,1896.999242 237.648943,1885.447577 228.051022,1886.437841 229.263473,1897.989507 238.861397,1896.999242"/>
    <poly id="1081101372" type="building" color="255,230,230" fill="1" layer="-1.00" shape="265.529808,1986.682083 275.447908,1985.693086 273.600059,1967.370062 263.670922,1968.359014 265.529808,1986.682083"/>
    <poly id="1081101373" type="building" color="255,230,230" fill="1" layer="-1.00" shape="256.129310,2004.584151 265.873290,2002.964029 261.386907,1976.324280 251.642931,1977.944399 256.129310,2004.584151"/>
    <poly id="1081101374" type="building" color="255,230,230" fill="1" layer="-1.00" shape="243.014436,2007.108805 254.560690,2004.810151 248.325211,1973.827827 236.767968,1976.115373 243.014436,2007.108805"/>
    <poly id="1081101375" type="building" color="255,230,230" fill="1" layer="-1.00" shape="216.917383,2014.868377 224.221022,2013.360179 220.451020,1995.328098 213.147383,1996.836294 216.917383,2014.868377"/>
    <poly id="1081101376" type="building" color="255,230,230" fill="1" layer="-1.00" shape="212.116199,1992.419166 221.365717,1990.210890 218.813258,1979.693529 209.574782,1981.901849 212.116199,1992.419166"/>
    <poly id="1081304008" type="building" color="255,230,230" fill="1" layer="-1.00" shape="756.954961,1908.621553 749.770081,1883.099295 742.331812,1885.160034 743.093864,1887.861745 740.043378,1888.712285 741.284320,1893.141288 744.058497,1892.367068 744.777006,1894.913764 742.002873,1895.676924 743.472396,1900.925287 746.025508,1900.216548 746.722202,1902.696796 744.169090,1903.405536 745.595334,1908.432524 748.645821,1907.581983 749.527729,1910.682337 756.954961,1908.621553"/>
    <poly id="1081304009" type="building" color="255,230,230" fill="1" layer="-1.00" shape="763.390995,1908.724608 769.856685,1906.925436 767.744784,1899.418245 761.279094,1901.217417 763.390995,1908.724608"/>
    <poly id="1081304010" type="building" color="255,230,230" fill="1" layer="-1.00" shape="760.629027,1898.117987 767.050776,1896.263339 762.236410,1879.841967 755.803622,1881.696569 760.629027,1898.117987"/>
    <poly id="1081304011" type="building" color="255,230,230" fill="1" layer="-1.00" shape="762.963726,1924.527855 754.510781,1926.330173 755.562151,1931.234005 753.595349,1931.646457 754.766089,1937.070592 756.909707,1936.614604 757.668547,1940.123693 765.944676,1938.364911 762.963726,1924.527855"/>
    <poly id="1081304017" type="building" color="255,230,230" fill="1" layer="-1.00" shape="765.933483,1996.618655 775.935481,1993.959811 773.161272,1983.651768 763.159275,1986.310611 765.933483,1996.618655"/>
    <poly id="1081304018" type="building" color="255,230,230" fill="1" layer="-1.00" shape="789.079665,1984.058022 816.349062,1978.503807 814.193529,1968.087630 786.935177,1973.641886 789.079665,1984.058022"/>
    <poly id="1081304019" type="building" color="255,230,230" fill="1" layer="-1.00" shape="816.570435,1997.771458 824.261227,1996.065635 821.212868,1982.515884 813.510994,1984.232722 816.570435,1997.771458"/>
    <poly id="1081304020" type="building" color="255,230,230" fill="1" layer="-1.00" shape="801.587041,2000.996664 813.841780,1998.203000 810.933158,1985.604976 798.678421,1988.398639 801.587041,2000.996664"/>
    <poly id="1081304021" type="building" color="255,230,230" fill="1" layer="-1.00" shape="779.953417,2008.000075 796.697867,2003.355128 793.921979,1993.467366 777.177532,1998.112311 779.953417,2008.000075"/>
    <poly id="1081304022" type="building" color="255,230,230" fill="1" layer="-1.00" shape="798.991817,2023.372063 827.894952,2015.103547 824.802022,2004.429256 795.898891,2012.697769 798.991817,2023.372063"/>
    <poly id="1081726537" type="building" color="255,230,230" fill="1" layer="-1.00" shape="768.246899,1174.936315 776.031886,1171.726724 773.965058,1166.774599 766.180071,1169.984188 768.246899,1174.936315"/>
    <poly id="1081726538" type="building" color="255,230,230" fill="1" layer="-1.00" shape="771.836039,1166.345826 768.454039,1158.977344 762.536950,1161.652432 765.918950,1169.020915 771.836039,1166.345826"/>
    <poly id="1081726539" type="building" color="255,230,230" fill="1" layer="-1.00" shape="764.678403,1158.962293 771.941561,1156.491653 769.835293,1150.355934 762.561096,1152.826529 764.678403,1158.962293"/>
    <poly id="1081726540" type="building" color="255,230,230" fill="1" layer="-1.00" shape="794.652275,1167.233105 799.760453,1165.306879 796.154812,1155.880322 791.035550,1157.817563 794.652275,1167.233105"/>
    <poly id="1081726541" type="building" color="255,230,230" fill="1" layer="-1.00" shape="793.510452,1168.411990 790.144470,1159.793778 785.201934,1161.709602 788.578955,1170.327859 793.510452,1168.411990"/>
    <poly id="1081726542" type="building" color="255,230,230" fill="1" layer="-1.00" shape="781.874603,1154.474062 784.195392,1159.416139 795.687195,1154.097774 793.366449,1149.144637 781.874603,1154.474062"/>
    <poly id="1081726543" type="building" color="255,230,230" fill="1" layer="-1.00" shape="807.384026,1161.045927 801.509462,1150.283109 796.586053,1152.940041 802.471701,1163.691844 807.384026,1161.045927"/>
    <poly id="1081726544" type="building" color="255,230,230" fill="1" layer="-1.00" shape="778.804170,1143.722417 787.903645,1140.330044 786.876788,1137.594094 783.980023,1138.666441 780.615148,1129.771728 774.412483,1132.080693 778.804170,1143.722417"/>
    <poly id="1081726545" type="building" color="255,230,230" fill="1" layer="-1.00" shape="806.489240,1144.562741 820.493917,1137.540064 816.813220,1130.325239 802.819584,1137.347958 806.489240,1144.562741"/>
    <poly id="1081726546" type="building" color="255,230,230" fill="1" layer="-1.00" shape="806.002505,1155.886392 814.754346,1151.076929 811.136978,1144.592326 802.385093,1149.412848 806.002505,1155.886392"/>
    <poly id="1081726547" type="building" color="255,230,230" fill="1" layer="-1.00" shape="652.988648,1172.198322 662.626008,1169.582325 661.146068,1164.190127 651.508709,1166.806123 652.988648,1172.198322"/>
    <poly id="1081726548" type="building" color="255,230,230" fill="1" layer="-1.00" shape="643.014440,1187.299891 653.830690,1185.285846 652.079198,1176.010449 641.262906,1178.035553 643.014440,1187.299891"/>
    <poly id="1081726549" type="building" color="255,230,230" fill="1" layer="-1.00" shape="646.670538,1197.910104 653.932564,1195.727039 651.655094,1188.230229 644.393069,1190.413294 646.670538,1197.910104"/>
    <poly id="1081726550" type="building" color="255,230,230" fill="1" layer="-1.00" shape="675.687819,1180.296411 671.581995,1168.954437 665.534448,1171.120227 669.640272,1182.462202 675.687819,1180.296411"/>
    <poly id="1081726551" type="building" color="255,230,230" fill="1" layer="-1.00" shape="852.035308,1325.953668 859.151129,1324.444656 855.107755,1305.725844 857.196102,1305.280698 855.862826,1299.092766 853.774479,1299.537912 851.877395,1290.770719 844.761578,1292.279729 852.035308,1325.953668"/>
    <poly id="1081726552" type="building" color="255,230,230" fill="1" layer="-1.00" shape="847.334352,1317.108944 844.997083,1307.986073 837.570692,1309.858829 839.896920,1318.981657 847.334352,1317.108944"/>
    <poly id="1081726553" type="building" color="255,230,230" fill="1" layer="-1.00" shape="824.167613,1301.654098 826.732750,1311.773292 833.087127,1310.183830 832.423916,1307.615233 843.861801,1304.751987 841.948832,1297.201347 824.167613,1301.654098"/>
    <poly id="1081726554" type="building" color="255,230,230" fill="1" layer="-1.00" shape="760.314988,1306.398815 792.632596,1297.259215 787.591209,1279.653488 773.775514,1283.569018 775.844265,1290.810600 769.245907,1292.675586 767.340375,1286.031902 755.447867,1289.391025 760.314988,1306.398815"/>
    <poly id="1081726555" type="building" color="255,230,230" fill="1" layer="-1.00" shape="751.734739,1287.540239 759.733797,1286.023703 758.392668,1279.039403 750.393655,1280.544878 751.734739,1287.540239"/>
    <poly id="1081726556" type="building" color="255,230,230" fill="1" layer="-1.00" shape="843.415035,1278.338581 849.149410,1277.189053 850.557143,1284.085132 855.241891,1283.141564 853.834158,1276.245485 873.169827,1272.340866 869.975186,1256.733337 857.412569,1259.260300 856.589445,1255.264309 849.418699,1256.706738 850.241822,1260.702730 840.231487,1262.720031 843.415035,1278.338581"/>
    <poly id="1081726557" type="building" color="255,230,230" fill="1" layer="-1.00" shape="828.440604,1210.104175 815.276665,1169.604758 791.587543,1177.208203 795.372003,1188.858563 807.675295,1184.914887 813.008425,1201.338340 803.114953,1204.506353 807.150251,1216.931921 828.440604,1210.104175"/>
    <poly id="1081726558" type="building" color="255,230,230" fill="1" layer="-1.00" shape="803.798396,1226.927996 795.593622,1205.272706 785.742279,1208.949651 793.947049,1230.604943 803.798396,1226.927996"/>
    <poly id="1081726559" type="building" color="255,230,230" fill="1" layer="-1.00" shape="787.479504,1232.890736 777.680617,1204.017872 768.593536,1207.067431 778.403504,1235.929283 787.479504,1232.890736"/>
    <poly id="1081741724" type="building" color="255,230,230" fill="1" layer="-1.00" shape="270.915041,1470.359359 278.401065,1470.157002 278.209649,1462.801221 270.723625,1463.003577 270.915041,1470.359359"/>
    <poly id="1081741725" type="building" color="255,230,230" fill="1" layer="-1.00" shape="277.172466,1462.653295 288.786508,1462.699692 288.831441,1451.451674 277.217403,1451.405277 277.172466,1462.653295"/>
    <poly id="1081741726" type="building" color="255,230,230" fill="1" layer="-1.00" shape="250.231250,1460.709668 257.209965,1460.372566 256.729576,1450.737233 249.750862,1451.074335 250.231250,1460.709668"/>
    <poly id="1081741727" type="building" color="255,230,230" fill="1" layer="-1.00" shape="302.516737,1435.988919 302.635466,1444.959194 320.620706,1444.743469 320.513057,1435.762179 302.516737,1435.988919"/>
    <poly id="1081741728" type="building" color="255,230,230" fill="1" layer="-1.00" shape="259.014981,1467.292387 264.115445,1467.312765 264.175408,1452.304346 259.074946,1452.283968 259.014981,1467.292387"/>
    <poly id="1081741729" type="building" color="255,230,230" fill="1" layer="-1.00" shape="268.387677,1492.259469 277.808218,1491.434410 276.106867,1472.381992 266.686330,1473.207050 268.387677,1492.259469"/>
    <poly id="1081741730" type="building" color="255,230,230" fill="1" layer="-1.00" shape="255.796807,1493.536387 265.427550,1492.601569 264.218350,1480.242522 254.587609,1481.177340 255.796807,1493.536387"/>
    <poly id="1081741731" type="building" color="255,230,230" fill="1" layer="-1.00" shape="290.087204,1435.574280 290.047572,1445.495098 300.921931,1445.538538 300.961561,1435.617721 290.087204,1435.574280"/>
    <poly id="1081741732" type="building" color="255,230,230" fill="1" layer="-1.00" shape="270.888793,1441.005548 271.238649,1450.153711 281.893934,1449.764933 281.555116,1440.616815 270.888793,1441.005548"/>
    <poly id="1081741733" type="building" color="255,230,230" fill="1" layer="-1.00" shape="301.834376,1487.969009 320.348181,1488.098258 320.636288,1449.134420 302.122542,1448.994108 301.834376,1487.969009"/>
    <poly id="1081824554" type="building" color="255,230,230" fill="1" layer="-1.00" shape="987.988421,1374.451861 994.173541,1373.779695 993.033834,1363.334389 986.837719,1363.995451 987.988421,1374.451861"/>
    <poly id="1081824555" type="building" color="255,230,230" fill="1" layer="-1.00" shape="1029.970489,1497.353280 1045.992572,1488.303487 1038.964787,1476.009833 1022.931621,1485.070639 1029.970489,1497.353280"/>
    <poly id="1081824556" type="building" color="255,230,230" fill="1" layer="-1.00" shape="1024.747764,1436.512817 1032.360165,1435.061055 1030.326256,1424.601133 1022.724852,1426.063999 1024.747764,1436.512817"/>
    <poly id="1081824557" type="building" color="255,230,230" fill="1" layer="-1.00" shape="999.906348,1392.438845 1006.843021,1391.559525 1005.697454,1382.585195 998.760783,1383.464514 999.906348,1392.438845"/>
    <poly id="1081824558" type="building" color="255,230,230" fill="1" layer="-1.00" shape="948.918965,1443.422180 965.656160,1440.546818 964.555450,1434.171796 947.807217,1437.047114 948.918965,1443.422180"/>
    <poly id="1081824559" type="building" color="255,230,230" fill="1" layer="-1.00" shape="971.085044,1416.302489 976.674103,1415.605830 975.679048,1407.649630 970.078906,1408.357304 971.085044,1416.302489"/>
    <poly id="1082995234" type="building" color="255,230,230" fill="1" layer="-1.00" shape="955.127759,1966.624560 960.685608,1965.463238 958.290819,1954.128132 952.732971,1955.289453 955.127759,1966.624560"/>
    <poly id="1082995235" type="building" color="255,230,230" fill="1" layer="-1.00" shape="914.510469,1952.836850 921.890761,1951.472643 919.134265,1936.707449 911.754019,1938.060596 914.510469,1952.836850"/>
    <poly id="1082995236" type="building" color="255,230,230" fill="1" layer="-1.00" shape="923.160731,1929.191519 939.479976,1925.960538 937.433944,1915.766011 921.114746,1918.985930 923.160731,1929.191519"/>
    <poly id="1082995237" type="building" color="255,230,230" fill="1" layer="-1.00" shape="941.761409,1938.036226 953.880909,1935.927722 951.851017,1924.450284 939.742560,1926.558831 941.761409,1938.036226"/>
    <poly id="1082995238" type="building" color="255,230,230" fill="1" layer="-1.00" shape="931.613634,1957.915153 940.243871,1955.947609 938.301282,1947.500995 929.671091,1949.457478 931.613634,1957.915153"/>
    <poly id="1083079789" type="building" color="255,230,230" fill="1" layer="-1.00" shape="515.155576,1838.531863 533.517492,1838.018904 533.245862,1828.616685 514.883949,1829.129643 515.155576,1838.531863"/>
    <poly id="1083079790" type="building" color="255,230,230" fill="1" layer="-1.00" shape="486.123688,1840.329474 492.052929,1859.542505 497.480250,1857.894068 491.562092,1838.670023 486.123688,1840.329474"/>
    <poly id="1083079791" type="building" color="255,230,230" fill="1" layer="-1.00" shape="494.641347,1841.679609 501.606231,1839.285214 497.469216,1827.445401 490.504333,1829.839795 494.641347,1841.679609"/>
    <poly id="1083079792" type="building" color="255,230,230" fill="1" layer="-1.00" shape="494.920447,1843.671551 499.436831,1862.812584 508.310366,1860.746545 503.793979,1841.605514 494.920447,1843.671551"/>
    <poly id="1083079793" type="building" color="255,230,230" fill="1" layer="-1.00" shape="472.038014,1864.826847 479.350979,1863.738942 476.758403,1846.662770 469.445397,1847.761734 472.038014,1864.826847"/>
    <poly id="1083079794" type="building" color="255,230,230" fill="1" layer="-1.00" shape="471.390807,1877.620873 478.029360,1876.773601 476.733132,1866.836405 470.105576,1867.694781 471.390807,1877.620873"/>
    <poly id="1083079795" type="building" color="255,230,230" fill="1" layer="-1.00" shape="478.726383,1876.400336 480.237855,1887.731971 488.014240,1886.712273 486.502766,1875.380639 478.726383,1876.400336"/>
    <poly id="1083079796" type="building" color="255,230,230" fill="1" layer="-1.00" shape="468.646699,1879.158350 465.266192,1854.801446 458.086106,1855.790338 461.466609,1880.147243 468.646699,1879.158350"/>
    <poly id="1083079797" type="building" color="255,230,230" fill="1" layer="-1.00" shape="472.664486,1967.943238 491.932244,1961.771094 487.777015,1948.957915 468.509261,1955.130057 472.664486,1967.943238"/>
    <poly id="1083092982" type="building" color="255,230,230" fill="1" layer="-1.00" shape="210.883633,1889.156437 219.412260,1887.763739 218.484990,1882.207827 197.826291,1885.576084 200.415553,1903.459674 224.047306,1899.284835 222.762207,1892.101648 211.592663,1894.069988 210.883633,1889.156437"/>
    <poly id="1083092983" type="building" color="255,230,230" fill="1" layer="-1.00" shape="227.799265,1849.960376 229.939024,1869.821938 239.459750,1868.809246 237.319987,1848.947685 227.799265,1849.960376"/>
    <poly id="1083092986" type="building" color="255,230,230" fill="1" layer="-1.00" shape="376.843059,1752.960524 381.430037,1770.995847 388.237624,1769.286572 383.639604,1751.251206 376.843059,1752.960524"/>
    <poly id="1083092987" type="building" color="255,230,230" fill="1" layer="-1.00" shape="366.588560,1758.029390 354.248772,1760.004142 356.252901,1772.366352 367.730996,1770.531941 368.016274,1773.740528 375.482114,1773.073538 373.853600,1755.116385 366.387762,1755.783374 366.588560,1758.029390"/>
    <poly id="1083092988" type="building" color="255,230,230" fill="1" layer="-1.00" shape="283.946410,1693.240745 285.906755,1702.738203 294.215738,1701.045998 292.255391,1691.548541 283.946410,1693.240745"/>
    <poly id="1083092989" type="building" color="255,230,230" fill="1" layer="-1.00" shape="286.112062,1651.331336 288.590978,1658.143243 303.793027,1652.684929 301.314110,1645.873023 286.112062,1651.331336"/>
    <poly id="1083092990" type="building" color="255,230,230" fill="1" layer="-1.00" shape="309.094722,1624.436301 321.977517,1624.708951 322.113268,1618.360954 309.230475,1618.088304 309.094722,1624.436301"/>
    <poly id="1083092991" type="building" color="255,230,230" fill="1" layer="-1.00" shape="313.765805,1604.812089 313.795206,1616.801433 322.770944,1616.781976 322.741540,1604.792632 313.765805,1604.812089"/>
    <poly id="1083092992" type="building" color="255,230,230" fill="1" layer="-1.00" shape="281.312199,1573.282638 283.783995,1581.875206 302.463045,1576.574568 299.991203,1567.993061 281.312199,1573.282638"/>
    <poly id="1083093008" type="building" color="255,230,230" fill="1" layer="-1.00" shape="307.077957,1759.008423 307.769680,1765.492445 329.174663,1763.222092 328.482937,1756.738070 307.077957,1759.008423"/>
    <poly id="1083093009" type="building" color="255,230,230" fill="1" layer="-1.00" shape="305.218643,1743.560998 305.705417,1754.368730 322.434282,1753.628133 321.947549,1742.809342 305.218643,1743.560998"/>
    <poly id="1083093010" type="building" color="255,230,230" fill="1" layer="-1.00" shape="304.962562,1733.041752 305.540748,1740.310594 327.683370,1738.551957 327.105181,1731.283116 304.962562,1733.041752"/>
    <poly id="1085333053" type="building" color="255,230,230" fill="1" layer="-1.00" shape="394.528817,2007.647210 399.934697,2005.843852 401.015045,2009.011370 405.403869,2007.546818 404.323522,2004.379300 408.491235,2002.991287 406.461653,1996.999640 392.510276,2001.655607 394.528817,2007.647210"/>
    <poly id="1085333054" type="building" color="255,230,230" fill="1" layer="-1.00" shape="330.140116,1875.365014 342.731383,1874.010634 341.527608,1863.045201 328.936299,1864.410640 330.140116,1875.365014"/>
    <poly id="1085333055" type="building" color="255,230,230" fill="1" layer="-1.00" shape="372.812549,1888.707999 386.685477,1887.104339 385.884927,1880.221720 372.012000,1881.825380 372.812549,1888.707999"/>
    <poly id="1085333056" type="building" color="255,230,230" fill="1" layer="-1.00" shape="389.663142,1813.212186 397.361711,1812.324916 395.642927,1797.619095 387.944404,1798.495303 389.663142,1813.212186"/>
    <poly id="1085333057" type="building" color="255,230,230" fill="1" layer="-1.00" shape="423.579186,1893.323587 430.349739,1892.598509 430.924765,1897.898622 439.981624,1896.928280 439.395601,1891.617064 448.596067,1890.625174 445.656235,1863.737247 428.172032,1865.625138 426.968680,1854.549112 419.436016,1855.359628 421.896638,1877.832642 427.341810,1877.246059 427.969917,1883.077272 422.524745,1883.663855 423.579186,1893.323587"/>
    <poly id="1085387726" type="building" color="255,230,230" fill="1" layer="-1.00" shape="251.084513,1896.605649 257.769139,1895.283001 254.142976,1877.174076 247.447312,1878.496678 251.084513,1896.605649"/>
    <poly id="1085388911" type="building" color="255,230,230" fill="1" layer="-1.00" shape="427.080265,1851.485891 433.112012,1850.536663 431.808513,1842.424362 425.776723,1843.384649 427.080265,1851.485891"/>
    <poly id="1085388912" type="building" color="255,230,230" fill="1" layer="-1.00" shape="446.524674,1859.139684 455.318682,1857.637405 454.164092,1850.941400 445.359046,1852.443634 446.524674,1859.139684"/>
    <poly id="1085388913" type="building" color="255,230,230" fill="1" layer="-1.00" shape="567.741062,1868.747768 573.432856,1867.222040 568.319091,1848.377263 562.638383,1849.891975 567.741062,1868.747768"/>
    <poly id="1085502911" type="building" color="255,230,230" fill="1" layer="-1.00" shape="982.103228,1072.442429 990.038700,1067.474849 987.109430,1062.851106 979.173959,1067.818686 982.103228,1072.442429"/>
    <poly id="1085502912" type="building" color="255,230,230" fill="1" layer="-1.00" shape="986.787860,1079.838198 994.723377,1074.859557 990.038700,1067.474849 982.103228,1072.442429 986.787860,1079.838198"/>